ARG
  -OEChem-04212319253D

 27 26  0     1  0  0  0  0  0999 V2000
   69.8120   14.6850   89.8100 N   0  0  0  0  0  0  0  0  0  0  0  0
   70.0520   14.5730   91.2800 C   0  0  2  0  0  0  0  0  0  0  0  0
   71.5420   14.3890   91.6040 C   0  0  0  0  0  0  0  0  0  0  0  0
   72.3540   14.3420   90.6590 O   0  0  0  0  0  0  0  0  0  0  0  0
   69.2270   13.4190   91.8540 C   0  0  0  0  0  0  0  0  0  0  0  0
   67.7220   13.6070   91.6860 C   0  0  0  0  0  0  0  0  0  0  0  0
   66.9520   12.3440   92.0450 C   0  0  0  0  0  0  0  0  0  0  0  0
   67.3070   11.2240   91.1780 N   0  0  0  0  0  0  0  0  0  0  0  0
   66.9320    9.9660   91.3800 C   0  0  0  0  0  0  0  0  0  0  0  0
   66.1760    9.6510   92.4210 N   0  0  0  0  0  0  0  0  0  0  0  0
   67.3440    9.0150   90.5540 N   0  3  0  0  0  0  0  0  0  0  0  0
   71.9010   14.3200   92.7980 O   0  0  0  0  0  0  0  0  0  0  0  0
   68.8220   14.8070   89.5940 H   0  0  0  0  0  0  0  0  0  0  0  0
   70.2050   13.8880   89.3080 H   0  0  0  0  0  0  0  0  0  0  0  0
   69.7280   15.5280   91.7560 H   0  0  0  0  0  0  0  0  0  0  0  0
   69.5540   12.4450   91.4200 H   0  0  0  0  0  0  0  0  0  0  0  0
   69.4860   13.2410   92.9230 H   0  0  0  0  0  0  0  0  0  0  0  0
   67.3550   14.4850   92.2660 H   0  0  0  0  0  0  0  0  0  0  0  0
   67.4680   13.9580   90.6580 H   0  0  0  0  0  0  0  0  0  0  0  0
   67.0830   12.0810   93.1200 H   0  0  0  0  0  0  0  0  0  0  0  0
   65.8510   12.5250   92.0420 H   0  0  0  0  0  0  0  0  0  0  0  0
   68.3240   11.2200   91.1000 H   0  0  0  0  0  0  0  0  0  0  0  0
   65.8880    8.6840   92.5760 H   0  0  0  0  0  0  0  0  0  0  0  0
   65.3390   10.2340   92.3970 H   0  0  0  0  0  0  0  0  0  0  0  0
   67.9260    9.2570   89.7520 H   0  0  0  0  0  0  0  0  0  0  0  0
   67.0560    8.0480   90.7090 H   0  0  0  0  0  0  0  0  0  0  0  0
   72.8220   14.2060   92.9980 H   0  0  0  0  0  0  0  0  0  0  0  0
  1  2  1  0  0  0  0
  1 13  1  0  0  0  0
  1 14  1  0  0  0  0
  2  3  1  0  0  0  0
  2  5  1  0  0  0  0
  2 15  1  0  0  0  0
  3  4  2  0  0  0  0
  3 12  1  0  0  0  0
  5  6  1  0  0  0  0
  5 16  1  0  0  0  0
  5 17  1  0  0  0  0
  6  7  1  0  0  0  0
  6 18  1  0  0  0  0
  6 19  1  0  0  0  0
  7  8  1  0  0  0  0
  7 20  1  0  0  0  0
  7 21  1  0  0  0  0
  8  9  1  0  0  0  0
  8 22  1  0  0  0  0
  9 10  1  0  0  0  0
  9 11  2  0  0  0  0
 10 23  1  0  0  0  0
 10 24  1  0  0  0  0
 11 25  1  0  0  0  0
 11 26  1  0  0  0  0
 12 27  1  0  0  0  0
M  CHG  1  11   1
M  END
> <OPENEYE_ISO_SMILES>
C(C[C@@H](C(=O)O)N)CNC(=[NH2+])N

> <OPENEYE_INCHI>
InChI=1S/C6H14N4O2/c7-4(5(11)12)2-1-3-10-6(8)9/h4H,1-3,7H2,(H,11,12)(H4,8,9,10)/p+1/t4-/m0/s1

> <OPENEYE_INCHIKEY>
ODKSFYDXXFIFQN-BYPYZUCNSA-O

> <FORMULA>
C6H15N4O2+

$$$$
