ASP
  -OEChem-04212319253D

 16 15  0     1  0  0  0  0  0999 V2000
   33.4870   17.7360   39.0940 N   0  0  0  0  0  0  0  0  0  0  0  0
   34.9090   17.5060   38.7090 C   0  0  2  0  0  0  0  0  0  0  0  0
   34.9930   16.5270   37.5370 C   0  0  0  0  0  0  0  0  0  0  0  0
   36.1060   16.0310   37.2610 O   0  0  0  0  0  0  0  0  0  0  0  0
   35.6820   16.9540   39.9150 C   0  0  0  0  0  0  0  0  0  0  0  0
   35.2310   15.5440   40.3060 C   0  0  0  0  0  0  0  0  0  0  0  0
   35.7930   14.9860   41.2790 O   0  0  0  0  0  0  0  0  0  0  0  0
   34.3270   14.9990   39.6310 O   0  0  0  0  0  0  0  0  0  0  0  0
   33.9350   16.2650   36.9130 O   0  0  0  0  0  0  0  0  0  0  0  0
   33.4480   18.3770   39.8600 H   0  0  0  0  0  0  0  0  0  0  0  0
   32.9880   18.1170   38.3150 H   0  0  0  0  0  0  0  0  0  0  0  0
   35.3560   18.4610   38.3950 H   0  0  0  0  0  0  0  0  0  0  0  0
   36.7510   16.9190   39.6570 H   0  0  0  0  0  0  0  0  0  0  0  0
   35.5150   17.6230   40.7720 H   0  0  0  0  0  0  0  0  0  0  0  0
   34.1550   14.1300   39.9740 H   0  0  0  0  0  0  0  0  0  0  0  0
   34.1220   15.6450   36.2180 H   0  0  0  0  0  0  0  0  0  0  0  0
  1  2  1  0  0  0  0
  1 10  1  0  0  0  0
  1 11  1  0  0  0  0
  2  3  1  0  0  0  0
  2  5  1  0  0  0  0
  2 12  1  0  0  0  0
  3  4  2  0  0  0  0
  3  9  1  0  0  0  0
  5  6  1  0  0  0  0
  5 13  1  0  0  0  0
  5 14  1  0  0  0  0
  6  7  2  0  0  0  0
  6  8  1  0  0  0  0
  8 15  1  0  0  0  0
  9 16  1  0  0  0  0
M  END
> <OPENEYE_ISO_SMILES>
C([C@@H](C(=O)O)N)C(=O)O

> <OPENEYE_INCHI>
InChI=1S/C4H7NO4/c5-2(4(8)9)1-3(6)7/h2H,1,5H2,(H,6,7)(H,8,9)/t2-/m0/s1

> <OPENEYE_INCHIKEY>
CKLJMWTZIZZHCS-REOHCLBHSA-N

> <FORMULA>
C4H7NO4

$$$$
