CYS
  -OEChem-04282315093D

 14 13  0     1  0  0  0  0  0999 V2000
   22.5850   13.7160   37.7150 N   0  0  0  0  0  0  0  0  0  0  0  0
   22.3720   13.4680   39.1680 C   0  0  2  0  0  0  0  0  0  0  0  0
   21.8060   14.6860   39.8930 C   0  0  0  0  0  0  0  0  0  0  0  0
   22.6140   15.5530   40.2770 O   0  0  0  0  0  0  0  0  0  0  0  0
   23.6830   13.0190   39.8280 C   0  0  0  0  0  0  0  0  0  0  0  0
   25.2020   13.4400   38.9210 S   0  0  0  0  0  0  0  0  0  0  0  0
   20.5650   14.7470   40.0760 O   0  0  0  0  0  0  0  0  0  0  0  0
   22.9630   12.9020   37.2300 H   0  0  0  0  0  0  0  0  0  0  0  0
   23.1710   14.5370   37.5650 H   0  0  0  0  0  0  0  0  0  0  0  0
   21.6140   12.6540   39.2530 H   0  0  0  0  0  0  0  0  0  0  0  0
   23.7390   13.4120   40.8690 H   0  0  0  0  0  0  0  0  0  0  0  0
   23.6510   11.9230   40.0310 H   0  0  0  0  0  0  0  0  0  0  0  0
   26.0130   13.1620   39.3290 H   0  0  0  0  0  0  0  0  0  0  0  0
   20.2120   15.5050   40.5270 H   0  0  0  0  0  0  0  0  0  0  0  0
  1  2  1  0  0  0  0
  1  8  1  0  0  0  0
  1  9  1  0  0  0  0
  2  3  1  0  0  0  0
  2  5  1  0  0  0  0
  2 10  1  0  0  0  0
  3  4  2  0  0  0  0
  3  7  1  0  0  0  0
  5  6  1  0  0  0  0
  5 11  1  0  0  0  0
  5 12  1  0  0  0  0
  6 13  1  0  0  0  0
  7 14  1  0  0  0  0
M  END
> <OPENEYE_ISO_SMILES>
C([C@@H](C(=O)O)N)S

> <OPENEYE_INCHI>
InChI=1S/C3H7NO2S/c4-2(1-7)3(5)6/h2,7H,1,4H2,(H,5,6)/t2-/m0/s1

> <OPENEYE_INCHIKEY>
XUJNEKJLAYXESH-REOHCLBHSA-N

> <FORMULA>
C3H7NO2S

$$$$
