HIS
  -OEChem-04212319263D

 21 21  0     1  0  0  0  0  0999 V2000
   33.4720   42.6850   -4.6100 N   0  0  0  0  0  0  0  0  0  0  0  0
   33.4140   41.6860   -5.6730 C   0  0  2  0  0  0  0  0  0  0  0  0
   33.7730   42.2790   -7.0400 C   0  0  0  0  0  0  0  0  0  0  0  0
   33.4970   43.4440   -7.3370 O   0  0  0  0  0  0  0  0  0  0  0  0
   32.0050   41.0800   -5.7340 C   0  0  0  0  0  0  0  0  0  0  0  0
   31.8880   39.9020   -6.6510 C   0  0  0  0  0  0  0  0  0  0  0  0
   32.5390   38.7100   -6.4140 N   0  3  0  0  0  0  0  0  0  0  0  0
   31.1990   39.7340   -7.8040 C   0  0  0  0  0  0  0  0  0  0  0  0
   32.2510   37.8570   -7.3820 C   0  0  0  0  0  0  0  0  0  0  0  0
   31.4390   38.4530   -8.2370 N   0  0  0  0  0  0  0  0  0  0  0  0
   34.3820   41.4550   -7.8790 O   0  0  0  0  0  0  0  0  0  0  0  0
   33.4850   42.2270   -3.7210 H   0  0  0  0  0  0  0  0  0  0  0  0
   34.3010   43.2340   -4.7140 H   0  0  0  0  0  0  0  0  0  0  0  0
   34.1550   40.9080   -5.4390 H   0  0  0  0  0  0  0  0  0  0  0  0
   31.7330   40.7500   -4.7210 H   0  0  0  0  0  0  0  0  0  0  0  0
   31.3370   41.8600   -6.1270 H   0  0  0  0  0  0  0  0  0  0  0  0
   33.1350   38.5210   -5.6330 H   0  0  0  0  0  0  0  0  0  0  0  0
   30.5770   40.4700   -8.2920 H   0  0  0  0  0  0  0  0  0  0  0  0
   32.6180   36.8440   -7.4610 H   0  0  0  0  0  0  0  0  0  0  0  0
   31.0610   38.0390   -9.0650 H   0  0  0  0  0  0  0  0  0  0  0  0
   34.5530   41.9050   -8.6980 H   0  0  0  0  0  0  0  0  0  0  0  0
  1  2  1  0  0  0  0
  1 12  1  0  0  0  0
  1 13  1  0  0  0  0
  2  3  1  0  0  0  0
  2  5  1  0  0  0  0
  2 14  1  0  0  0  0
  3  4  2  0  0  0  0
  3 11  1  0  0  0  0
  5  6  1  0  0  0  0
  5 15  1  0  0  0  0
  5 16  1  0  0  0  0
  6  7  1  0  0  0  0
  6  8  2  0  0  0  0
  7  9  2  0  0  0  0
  7 17  1  0  0  0  0
  8 10  1  0  0  0  0
  8 18  1  0  0  0  0
  9 10  1  0  0  0  0
  9 19  1  0  0  0  0
 10 20  1  0  0  0  0
 11 21  1  0  0  0  0
M  CHG  1   7   1
M  END
> <OPENEYE_ISO_SMILES>
c1c([nH+]c[nH]1)C[C@@H](C(=O)O)N

> <OPENEYE_INCHI>
InChI=1S/C6H9N3O2/c7-5(6(10)11)1-4-2-8-3-9-4/h2-3,5H,1,7H2,(H,8,9)(H,10,11)/p+1/t5-/m0/s1

> <OPENEYE_INCHIKEY>
HNDVDQJCIGZPNO-YFKPBYRVSA-O

> <FORMULA>
C6H10N3O2+

$$$$
