ILE
  -OEChem-04212319263D

 22 21  0     1  0  0  0  0  0999 V2000
   52.6250   76.2350   68.0490 N   0  0  0  0  0  0  0  0  0  0  0  0
   52.9640   77.6200   67.7050 C   0  0  2  0  0  0  0  0  0  0  0  0
   51.9100   78.2340   66.7910 C   0  0  0  0  0  0  0  0  0  0  0  0
   51.4090   77.5080   65.9110 O   0  0  0  0  0  0  0  0  0  0  0  0
   54.3460   77.7270   66.9700 C   0  0  2  0  0  0  0  0  0  0  0  0
   54.8520   79.1790   66.9920 C   0  0  0  0  0  0  0  0  0  0  0  0
   54.2180   77.2370   65.5240 C   0  0  0  0  0  0  0  0  0  0  0  0
   56.1260   79.3820   66.1700 C   0  0  0  0  0  0  0  0  0  0  0  0
   51.6310   79.4440   66.9580 O   0  0  0  0  0  0  0  0  0  0  0  0
   53.3300   75.8240   68.6600 H   0  0  0  0  0  0  0  0  0  0  0  0
   52.4750   75.6670   67.2150 H   0  0  0  0  0  0  0  0  0  0  0  0
   53.0120   78.1690   68.6730 H   0  0  0  0  0  0  0  0  0  0  0  0
   55.0820   77.0820   67.5040 H   0  0  0  0  0  0  0  0  0  0  0  0
   54.0510   79.8830   66.6660 H   0  0  0  0  0  0  0  0  0  0  0  0
   54.9930   79.5350   68.0390 H   0  0  0  0  0  0  0  0  0  0  0  0
   55.2000   77.3130   65.0010 H   0  0  0  0  0  0  0  0  0  0  0  0
   53.7960   76.2060   65.4690 H   0  0  0  0  0  0  0  0  0  0  0  0
   53.4110   77.7730   64.9720 H   0  0  0  0  0  0  0  0  0  0  0  0
   56.4920   80.4340   66.1850 H   0  0  0  0  0  0  0  0  0  0  0  0
   56.9260   78.6770   66.4960 H   0  0  0  0  0  0  0  0  0  0  0  0
   55.9840   79.0260   65.1220 H   0  0  0  0  0  0  0  0  0  0  0  0
   50.9740   79.8260   66.3880 H   0  0  0  0  0  0  0  0  0  0  0  0
  1  2  1  0  0  0  0
  1 10  1  0  0  0  0
  1 11  1  0  0  0  0
  2  3  1  0  0  0  0
  2  5  1  0  0  0  0
  2 12  1  0  0  0  0
  3  4  2  0  0  0  0
  3  9  1  0  0  0  0
  5  6  1  0  0  0  0
  5  7  1  0  0  0  0
  5 13  1  0  0  0  0
  6  8  1  0  0  0  0
  6 14  1  0  0  0  0
  6 15  1  0  0  0  0
  7 16  1  0  0  0  0
  7 17  1  0  0  0  0
  7 18  1  0  0  0  0
  8 19  1  0  0  0  0
  8 20  1  0  0  0  0
  8 21  1  0  0  0  0
  9 22  1  0  0  0  0
M  END
> <OPENEYE_ISO_SMILES>
CC[C@H](C)[C@@H](C(=O)O)N

> <OPENEYE_INCHI>
InChI=1S/C6H13NO2/c1-3-4(2)5(7)6(8)9/h4-5H,3,7H2,1-2H3,(H,8,9)/t4-,5-/m0/s1

> <OPENEYE_INCHIKEY>
AGPKZVBTJJNPAG-WHFBIAKZSA-N

> <FORMULA>
C6H13NO2

$$$$
