LYS
  -OEChem-04212319273D

 25 24  0     1  0  0  0  0  0999 V2000
   37.5770   40.3850   -3.9680 N   0  0  0  0  0  0  0  0  0  0  0  0
   38.6310   39.4590   -4.3560 C   0  0  2  0  0  0  0  0  0  0  0  0
   38.0940   38.3040   -5.2120 C   0  0  0  0  0  0  0  0  0  0  0  0
   36.8730   38.2350   -5.4900 O   0  0  0  0  0  0  0  0  0  0  0  0
   39.3740   38.9190   -3.1390 C   0  0  0  0  0  0  0  0  0  0  0  0
   38.5230   38.1110   -2.1810 C   0  0  0  0  0  0  0  0  0  0  0  0
   39.1640   36.7490   -1.9030 C   0  0  0  0  0  0  0  0  0  0  0  0
   38.1060   35.7610   -1.3820 C   0  0  0  0  0  0  0  0  0  0  0  0
   37.1760   36.5460   -0.5390 N   0  3  0  0  0  0  0  0  0  0  0  0
   38.9610   37.6780   -5.8860 O   0  0  0  0  0  0  0  0  0  0  0  0
   37.9330   41.1520   -3.3990 H   0  0  0  0  0  0  0  0  0  0  0  0
   36.8120   39.9000   -3.4980 H   0  0  0  0  0  0  0  0  0  0  0  0
   39.3520   40.0370   -4.9790 H   0  0  0  0  0  0  0  0  0  0  0  0
   40.2620   38.3260   -3.4600 H   0  0  0  0  0  0  0  0  0  0  0  0
   39.8820   39.7500   -2.5960 H   0  0  0  0  0  0  0  0  0  0  0  0
   38.3170   38.6700   -1.2380 H   0  0  0  0  0  0  0  0  0  0  0  0
   37.4740   38.0070   -2.5460 H   0  0  0  0  0  0  0  0  0  0  0  0
   39.7010   36.3510   -2.7950 H   0  0  0  0  0  0  0  0  0  0  0  0
   40.0340   36.8310   -1.2100 H   0  0  0  0  0  0  0  0  0  0  0  0
   37.5930   35.1940   -2.1940 H   0  0  0  0  0  0  0  0  0  0  0  0
   38.5440   34.8820   -0.8540 H   0  0  0  0  0  0  0  0  0  0  0  0
   36.4740   35.8910   -0.1930 H   0  0  0  0  0  0  0  0  0  0  0  0
   37.6440   37.0640    0.2030 H   0  0  0  0  0  0  0  0  0  0  0  0
   36.7740   37.3500   -1.0210 H   0  0  0  0  0  0  0  0  0  0  0  0
   38.6280   36.9630   -6.4150 H   0  0  0  0  0  0  0  0  0  0  0  0
  1  2  1  0  0  0  0
  1 11  1  0  0  0  0
  1 12  1  0  0  0  0
  2  3  1  0  0  0  0
  2  5  1  0  0  0  0
  2 13  1  0  0  0  0
  3  4  2  0  0  0  0
  3 10  1  0  0  0  0
  5  6  1  0  0  0  0
  5 14  1  0  0  0  0
  5 15  1  0  0  0  0
  6  7  1  0  0  0  0
  6 16  1  0  0  0  0
  6 17  1  0  0  0  0
  7  8  1  0  0  0  0
  7 18  1  0  0  0  0
  7 19  1  0  0  0  0
  8  9  1  0  0  0  0
  8 20  1  0  0  0  0
  8 21  1  0  0  0  0
  9 22  1  0  0  0  0
  9 23  1  0  0  0  0
  9 24  1  0  0  0  0
 10 25  1  0  0  0  0
M  CHG  1   9   1
M  END
> <OPENEYE_ISO_SMILES>
C(CC[NH3+])C[C@@H](C(=O)O)N

> <OPENEYE_INCHI>
InChI=1S/C6H14N2O2/c7-4-2-1-3-5(8)6(9)10/h5H,1-4,7-8H2,(H,9,10)/p+1/t5-/m0/s1

> <OPENEYE_INCHIKEY>
KDXKERNSBIXSRK-YFKPBYRVSA-O

> <FORMULA>
C6H15N2O2+

$$$$
