MET
  -OEChem-04212319273D

 20 19  0     1  0  0  0  0  0999 V2000
   16.1610   15.7560   51.9030 N   0  0  0  0  0  0  0  0  0  0  0  0
   15.0840   16.7390   51.5960 C   0  0  2  0  0  0  0  0  0  0  0  0
   13.8460   15.9300   51.3670 C   0  0  0  0  0  0  0  0  0  0  0  0
   12.7950   16.5100   51.4240 O   0  0  0  0  0  0  0  0  0  0  0  0
   15.4010   17.5300   50.3170 C   0  0  0  0  0  0  0  0  0  0  0  0
   16.1830   18.8460   50.5020 C   0  0  0  0  0  0  0  0  0  0  0  0
   17.8520   18.6530   51.0630 S   0  0  0  0  0  0  0  0  0  0  0  0
   18.6140   17.8140   49.5560 C   0  0  0  0  0  0  0  0  0  0  0  0
   13.8650   14.7210   51.1540 O   0  0  0  0  0  0  0  0  0  0  0  0
   17.0040   16.3070   52.0590 H   0  0  0  0  0  0  0  0  0  0  0  0
   16.2700   15.0350   51.1890 H   0  0  0  0  0  0  0  0  0  0  0  0
   14.9750   17.4720   52.4290 H   0  0  0  0  0  0  0  0  0  0  0  0
   15.9350   16.8730   49.5910 H   0  0  0  0  0  0  0  0  0  0  0  0
   14.4590   17.7280   49.7540 H   0  0  0  0  0  0  0  0  0  0  0  0
   16.1600   19.4420   49.5600 H   0  0  0  0  0  0  0  0  0  0  0  0
   15.6250   19.5320   51.1810 H   0  0  0  0  0  0  0  0  0  0  0  0
   19.6640   17.6920   49.9090 H   0  0  0  0  0  0  0  0  0  0  0  0
   18.1070   16.8820   49.2110 H   0  0  0  0  0  0  0  0  0  0  0  0
   18.4870   18.3490   48.5860 H   0  0  0  0  0  0  0  0  0  0  0  0
   13.0790   14.2070   51.0080 H   0  0  0  0  0  0  0  0  0  0  0  0
  1  2  1  0  0  0  0
  1 10  1  0  0  0  0
  1 11  1  0  0  0  0
  2  3  1  0  0  0  0
  2  5  1  0  0  0  0
  2 12  1  0  0  0  0
  3  4  2  0  0  0  0
  3  9  1  0  0  0  0
  5  6  1  0  0  0  0
  5 13  1  0  0  0  0
  5 14  1  0  0  0  0
  6  7  1  0  0  0  0
  6 15  1  0  0  0  0
  6 16  1  0  0  0  0
  7  8  1  0  0  0  0
  8 17  1  0  0  0  0
  8 18  1  0  0  0  0
  8 19  1  0  0  0  0
  9 20  1  0  0  0  0
M  END
> <OPENEYE_ISO_SMILES>
CSCC[C@@H](C(=O)O)N

> <OPENEYE_INCHI>
InChI=1S/C5H11NO2S/c1-9-3-2-4(6)5(7)8/h4H,2-3,6H2,1H3,(H,7,8)/t4-/m0/s1

> <OPENEYE_INCHIKEY>
FFEARJCKVFRZRR-BYPYZUCNSA-N

> <FORMULA>
C5H11NO2S

$$$$
