PHE
  -OEChem-04212319273D

 23 23  0     1  0  0  0  0  0999 V2000
    3.2600   22.3020    6.0000 N   0  0  0  0  0  0  0  0  0  0  0  0
    4.2520   21.2720    5.7100 C   0  0  2  0  0  0  0  0  0  0  0  0
    5.5590   21.8990    5.2290 C   0  0  0  0  0  0  0  0  0  0  0  0
    5.8360   21.8380    4.0120 O   0  0  0  0  0  0  0  0  0  0  0  0
    3.7080   20.2980    4.6560 C   0  0  0  0  0  0  0  0  0  0  0  0
    4.5960   19.1060    4.4060 C   0  0  0  0  0  0  0  0  0  0  0  0
    5.0770   18.3390    5.4670 C   0  0  0  0  0  0  0  0  0  0  0  0
    4.9270   18.7320    3.1090 C   0  0  0  0  0  0  0  0  0  0  0  0
    5.8740   17.2190    5.2370 C   0  0  0  0  0  0  0  0  0  0  0  0
    5.7180   17.6180    2.8670 C   0  0  0  0  0  0  0  0  0  0  0  0
    6.1930   16.8600    3.9320 C   0  0  0  0  0  0  0  0  0  0  0  0
    6.2830   22.4600    6.0790 O   0  0  0  0  0  0  0  0  0  0  0  0
    2.3870   21.8830    6.3210 H   0  0  0  0  0  0  0  0  0  0  0  0
    3.1110   22.9180    5.2010 H   0  0  0  0  0  0  0  0  0  0  0  0
    4.4600   20.7080    6.6490 H   0  0  0  0  0  0  0  0  0  0  0  0
    2.6760   19.9680    4.9220 H   0  0  0  0  0  0  0  0  0  0  0  0
    3.4930   20.8330    3.7010 H   0  0  0  0  0  0  0  0  0  0  0  0
    4.8230   18.6220    6.5020 H   0  0  0  0  0  0  0  0  0  0  0  0
    4.5560   19.3280    2.2580 H   0  0  0  0  0  0  0  0  0  0  0  0
    6.2500   16.6190    6.0830 H   0  0  0  0  0  0  0  0  0  0  0  0
    5.9680   17.3350    1.8300 H   0  0  0  0  0  0  0  0  0  0  0  0
    6.8220   15.9740    3.7410 H   0  0  0  0  0  0  0  0  0  0  0  0
    7.0960   22.8500    5.7790 H   0  0  0  0  0  0  0  0  0  0  0  0
  1  2  1  0  0  0  0
  1 13  1  0  0  0  0
  1 14  1  0  0  0  0
  2  3  1  0  0  0  0
  2  5  1  0  0  0  0
  2 15  1  0  0  0  0
  3  4  2  0  0  0  0
  3 12  1  0  0  0  0
  5  6  1  0  0  0  0
  5 16  1  0  0  0  0
  5 17  1  0  0  0  0
  6  7  2  0  0  0  0
  6  8  1  0  0  0  0
  7  9  1  0  0  0  0
  7 18  1  0  0  0  0
  8 10  2  0  0  0  0
  8 19  1  0  0  0  0
  9 11  2  0  0  0  0
  9 20  1  0  0  0  0
 10 11  1  0  0  0  0
 10 21  1  0  0  0  0
 11 22  1  0  0  0  0
 12 23  1  0  0  0  0
M  END
> <OPENEYE_ISO_SMILES>
c1ccc(cc1)C[C@@H](C(=O)O)N

> <OPENEYE_INCHI>
InChI=1S/C9H11NO2/c10-8(9(11)12)6-7-4-2-1-3-5-7/h1-5,8H,6,10H2,(H,11,12)/t8-/m0/s1

> <OPENEYE_INCHIKEY>
COLNVLDHVKWLRT-QMMMGPOBSA-N

> <FORMULA>
C9H11NO2

$$$$
