PRO
  -OEChem-04212319273D

 17 17  0     1  0  0  0  0  0999 V2000
   39.1650   37.7680   82.9660 N   0  0  0  0  0  0  0  0  0  0  0  0
   38.5790   38.7000   82.0080 C   0  0  2  0  0  0  0  0  0  0  0  0
   37.2170   39.1260   82.5150 C   0  0  0  0  0  0  0  0  0  0  0  0
   36.2560   38.3320   82.3700 O   0  0  0  0  0  0  0  0  0  0  0  0
   38.4910   37.8740   80.7200 C   0  0  0  0  0  0  0  0  0  0  0  0
   38.3110   36.4450   81.2000 C   0  0  0  0  0  0  0  0  0  0  0  0
   38.9580   36.3580   82.5790 C   0  0  0  0  0  0  0  0  0  0  0  0
   37.1310   40.2630   83.0470 O   0  0  0  0  0  0  0  0  0  0  0  0
   40.1520   37.9280   82.9590 H   0  0  0  0  0  0  0  0  0  0  0  0
   39.1600   39.6380   81.8500 H   0  0  0  0  0  0  0  0  0  0  0  0
   37.7030   38.2190   80.0100 H   0  0  0  0  0  0  0  0  0  0  0  0
   39.3520   38.0170   80.0270 H   0  0  0  0  0  0  0  0  0  0  0  0
   37.2470   36.1090   81.1910 H   0  0  0  0  0  0  0  0  0  0  0  0
   38.7030   35.6870   80.4820 H   0  0  0  0  0  0  0  0  0  0  0  0
   38.3780   35.7590   83.3200 H   0  0  0  0  0  0  0  0  0  0  0  0
   39.8800   35.7320   82.6140 H   0  0  0  0  0  0  0  0  0  0  0  0
   36.2760   40.5300   83.3650 H   0  0  0  0  0  0  0  0  0  0  0  0
  1  2  1  0  0  0  0
  1  7  1  0  0  0  0
  1  9  1  0  0  0  0
  2  3  1  0  0  0  0
  2  5  1  0  0  0  0
  2 10  1  0  0  0  0
  3  4  2  0  0  0  0
  3  8  1  0  0  0  0
  5  6  1  0  0  0  0
  5 11  1  0  0  0  0
  5 12  1  0  0  0  0
  6  7  1  0  0  0  0
  6 13  1  0  0  0  0
  6 14  1  0  0  0  0
  7 15  1  0  0  0  0
  7 16  1  0  0  0  0
  8 17  1  0  0  0  0
M  END
> <OPENEYE_ISO_SMILES>
C1C[C@H](NC1)C(=O)O

> <OPENEYE_INCHI>
InChI=1S/C5H9NO2/c7-5(8)4-2-1-3-6-4/h4,6H,1-3H2,(H,7,8)/t4-/m0/s1

> <OPENEYE_INCHIKEY>
ONIBWKKTOPOVIA-BYPYZUCNSA-N

> <FORMULA>
C5H9NO2

$$$$
