THR
  -OEChem-04212319283D

 17 16  0     1  0  0  0  0  0999 V2000
   36.2410   32.0340   31.8610 N   0  0  0  0  0  0  0  0  0  0  0  0
   35.0100   31.2230   31.8760 C   0  0  2  0  0  0  0  0  0  0  0  0
   35.2130   30.2090   30.7690 C   0  0  0  0  0  0  0  0  0  0  0  0
   35.5640   30.6210   29.6350 O   0  0  0  0  0  0  0  0  0  0  0  0
   33.7550   32.0730   31.5700 C   0  0  2  0  0  0  0  0  0  0  0  0
   33.7300   33.2350   32.4120 O   0  0  0  0  0  0  0  0  0  0  0  0
   32.4820   31.2620   31.8630 C   0  0  0  0  0  0  0  0  0  0  0  0
   35.0420   29.0140   31.0570 O   0  0  0  0  0  0  0  0  0  0  0  0
   36.1040   32.7160   32.6060 H   0  0  0  0  0  0  0  0  0  0  0  0
   36.4570   32.4450   30.9530 H   0  0  0  0  0  0  0  0  0  0  0  0
   34.8420   30.7630   32.8780 H   0  0  0  0  0  0  0  0  0  0  0  0
   33.7920   32.3670   30.4950 H   0  0  0  0  0  0  0  0  0  0  0  0
   32.9590   33.7570   32.2240 H   0  0  0  0  0  0  0  0  0  0  0  0
   31.5770   31.8740   31.6420 H   0  0  0  0  0  0  0  0  0  0  0  0
   32.4710   30.2900   31.3150 H   0  0  0  0  0  0  0  0  0  0  0  0
   32.4710   30.8630   32.9040 H   0  0  0  0  0  0  0  0  0  0  0  0
   35.1690   28.3780   30.3620 H   0  0  0  0  0  0  0  0  0  0  0  0
  1  2  1  0  0  0  0
  1  9  1  0  0  0  0
  1 10  1  0  0  0  0
  2  3  1  0  0  0  0
  2  5  1  0  0  0  0
  2 11  1  0  0  0  0
  3  4  2  0  0  0  0
  3  8  1  0  0  0  0
  5  6  1  0  0  0  0
  5  7  1  0  0  0  0
  5 12  1  0  0  0  0
  6 13  1  0  0  0  0
  7 14  1  0  0  0  0
  7 15  1  0  0  0  0
  7 16  1  0  0  0  0
  8 17  1  0  0  0  0
M  END
> <OPENEYE_ISO_SMILES>
C[C@H]([C@@H](C(=O)O)N)O

> <OPENEYE_INCHI>
InChI=1S/C4H9NO3/c1-2(6)3(5)4(7)8/h2-3,6H,5H2,1H3,(H,7,8)/t2-,3+/m1/s1

> <OPENEYE_INCHIKEY>
AYFVYJQAPQTCCC-GBXIJSLDSA-N

> <FORMULA>
C4H9NO3

$$$$
