TYR
  -OEChem-04212319283D

 24 24  0     1  0  0  0  0  0999 V2000
    5.0050    5.2560   15.5630 N   0  0  0  0  0  0  0  0  0  0  0  0
    5.3260    6.3280   16.5070 C   0  0  2  0  0  0  0  0  0  0  0  0
    4.7420    7.6800   16.1160 C   0  0  0  0  0  0  0  0  0  0  0  0
    4.1850    8.4110   16.9470 O   0  0  0  0  0  0  0  0  0  0  0  0
    6.8360    6.3890   16.7560 C   0  0  0  0  0  0  0  0  0  0  0  0
    7.3770    5.4380   17.7950 C   0  0  0  0  0  0  0  0  0  0  0  0
    6.8260    5.3700   19.0750 C   0  0  0  0  0  0  0  0  0  0  0  0
    8.4930    4.6240   17.5650 C   0  0  0  0  0  0  0  0  0  0  0  0
    7.3080    4.5360   20.0610 C   0  0  0  0  0  0  0  0  0  0  0  0
    9.0290    3.8160   18.5520 C   0  0  0  0  0  0  0  0  0  0  0  0
    8.4390    3.7560   19.8050 C   0  0  0  0  0  0  0  0  0  0  0  0
    8.9540    2.9360   20.7810 O   0  0  0  0  0  0  0  0  0  0  0  0
    4.8400    8.0510   14.8290 O   0  0  0  0  0  0  0  0  0  0  0  0
    5.6210    4.9250   15.0640 H   0  0  0  0  0  0  0  0  0  0  0  0
    5.2880    5.5110   14.6170 H   0  0  0  0  0  0  0  0  0  0  0  0
    4.9130    6.0810   17.3610 H   0  0  0  0  0  0  0  0  0  0  0  0
    7.2890    6.2130   15.9160 H   0  0  0  0  0  0  0  0  0  0  0  0
    7.0630    7.2940   17.0230 H   0  0  0  0  0  0  0  0  0  0  0  0
    6.0970    5.9130   19.2720 H   0  0  0  0  0  0  0  0  0  0  0  0
    8.8870    4.6270   16.7230 H   0  0  0  0  0  0  0  0  0  0  0  0
    6.8860    4.4930   20.8880 H   0  0  0  0  0  0  0  0  0  0  0  0
    9.7880    3.3100   18.3730 H   0  0  0  0  0  0  0  0  0  0  0  0
    8.5000    3.0010   21.4600 H   0  0  0  0  0  0  0  0  0  0  0  0
    4.4750    8.8930   14.5850 H   0  0  0  0  0  0  0  0  0  0  0  0
  1  2  1  0  0  0  0
  1 14  1  0  0  0  0
  1 15  1  0  0  0  0
  2  3  1  0  0  0  0
  2  5  1  0  0  0  0
  2 16  1  0  0  0  0
  3  4  2  0  0  0  0
  3 13  1  0  0  0  0
  5  6  1  0  0  0  0
  5 17  1  0  0  0  0
  5 18  1  0  0  0  0
  6  7  2  0  0  0  0
  6  8  1  0  0  0  0
  7  9  1  0  0  0  0
  7 19  1  0  0  0  0
  8 10  2  0  0  0  0
  8 20  1  0  0  0  0
  9 11  2  0  0  0  0
  9 21  1  0  0  0  0
 10 11  1  0  0  0  0
 10 22  1  0  0  0  0
 11 12  1  0  0  0  0
 12 23  1  0  0  0  0
 13 24  1  0  0  0  0
M  END
> <OPENEYE_ISO_SMILES>
c1cc(ccc1C[C@@H](C(=O)O)N)O

> <OPENEYE_INCHI>
InChI=1S/C9H11NO3/c10-8(9(12)13)5-6-1-3-7(11)4-2-6/h1-4,8,11H,5,10H2,(H,12,13)/t8-/m0/s1

> <OPENEYE_INCHIKEY>
OUYCCCASQSFEME-QMMMGPOBSA-N

> <FORMULA>
C9H11NO3

$$$$
